Circuit: * C:\Users\nntsy\Documents\Github\darpa-ee-architecture\LTSpice\Draft3.asc

Limiting rise time of source v3 to 5e-005
Limiting fall time of source v3 to 5e-005
Limiting rise time of source v2 to 1e-005
Limiting fall time of source v2 to 1e-005
Direct Newton iteration for .op point succeeded.
Heightened Def Con from 0.000941062 to 0.000941065
Heightened Def Con from 0.000943494 to 0.000943497
Heightened Def Con from 0.0017352 to 0.0017352
Heightened Def Con from 0.00173579 to 0.00173579
Heightened Def Con from 0.00173916 to 0.00173916
Heightened Def Con from 0.00194364 to 0.00194365
Heightened Def Con from 0.00252179 to 0.00252179

Date: Sat Apr 24 15:52:54 2021
Total elapsed time: 8.800 seconds.

tnom = 27
temp = 27
method = modified trap
totiter = 965361
traniter = 965341
tranpoints = 413260
accept = 290377
rejected = 122890
matrix size = 37
fillins = 59
solver = Normal
Matrix Compiler1: 5.41 KB object code size  1.2/0.5/[0.3]
Matrix Compiler2: 3.89 KB object code size  0.5/0.5/[0.3]

